<?xml version="1.0" encoding="UTF-8"?>
<routes>
    
    <vTypeDistribution id="mixed_traffic">
        <vType id="car" length="4.903" accel="2.259" maxSpeed="15.0" color="yellow" probability="0.80" speedFactor="0.96"/>
        <vType id="bus" length="12.0" accel="1.0" maxSpeed="10.0" color="red" probability="0.10"/>
        <vType id="moto" length="2.0" accel="3.0" maxSpeed="20.0" color="blue" probability="0.10"/>
    </vTypeDistribution>
    
    <route id="route_NS" edges="edge_N_in edge_S_out"/>
    <route id="route_SN" edges="edge_S_in edge_N_out"/>
    <route id="route_EW" edges="edge_E_in edge_W_out"/>
    <route id="route_WE" edges="edge_W_in edge_E_out"/>
    <route id="route_NE" edges="edge_N_in edge_E_out"/>
    <route id="route_NW" edges="edge_N_in edge_W_out"/>
    <route id="route_SE" edges="edge_S_in edge_E_out"/>
    <route id="route_SW" edges="edge_S_in edge_W_out"/>

    <route id="route_EN" edges="edge_E_in edge_N_out"/>
    <route id="route_ES" edges="edge_E_in edge_S_out"/>
    <route id="route_WN" edges="edge_W_in edge_N_out"/>
    <route id="route_WS" edges="edge_W_in edge_S_out"/>
    
    <flow id="f_NS" type="mixed_traffic" route="route_NS" begin="0" end="1000" probability="0.04165"/>
    <flow id="f_SN" type="mixed_traffic" route="route_SN" begin="0" end="1000" probability="0.04165"/>
    <flow id="f_EW" type="mixed_traffic" route="route_EW" begin="0" end="1000" probability="0.04165"/>
    <flow id="f_WE" type="mixed_traffic" route="route_WE" begin="0" end="1000" probability="0.04165"/>
    <flow id="f_NE" type="mixed_traffic" route="route_NE" begin="0" end="1000" probability="0.04165"/>
    <flow id="f_NW" type="mixed_traffic" route="route_NW" begin="0" end="1000" probability="0.04165"/>
    <flow id="f_SE" type="mixed_traffic" route="route_SE" begin="0" end="1000" probability="0.04165"/>
    <flow id="f_SW" type="mixed_traffic" route="route_SW" begin="0" end="1000" probability="0.04165"/>
    <flow id="f_EN" type="mixed_traffic" route="route_EN" begin="0" end="1000" probability="0.04165"/>
    <flow id="f_ES" type="mixed_traffic" route="route_ES" begin="0" end="1000" probability="0.04165"/>
    <flow id="f_WN" type="mixed_traffic" route="route_WN" begin="0" end="1000" probability="0.04165"/>
    <flow id="f_WS" type="mixed_traffic" route="route_WS" begin="0" end="1000" probability="0.04165"/>
</routes>