<?xml version="1.0" encoding="UTF-8"?>

<!-- generated on 2026-02-19T20:26:37.643397+05:30 by Eclipse SUMO netconvert 1.25.0
<netconvertConfiguration xmlns:xsi="http://www.w3.org/2001/XMLSchema-instance" xsi:noNamespaceSchemaLocation="http://sumo.dlr.de/xsd/netconvertConfiguration.xsd">

    <input>
        <node-files value="sumo_config/hello.nod.xml"/>
        <edge-files value="sumo_config/hello.edg.xml"/>
        <tllogic-files value="sumo_config/J1_traffic_light.tll.xml"/>
    </input>

</netconvertConfiguration>
-->

<net version="1.20" junctionCornerDetail="5" limitTurnSpeed="5.50" xmlns:xsi="http://www.w3.org/2001/XMLSchema-instance" xsi:noNamespaceSchemaLocation="http://sumo.dlr.de/xsd/net_file.xsd">

    <location netOffset="500.00,500.00" convBoundary="0.00,0.00,1000.00,1000.00" origBoundary="-500.00,-500.00,500.00,500.00" projParameter="!"/>

    <edge id=":E_0" function="internal">
        <lane id=":E_0_0" index="0" speed="3.65" length="4.67" shape="1000.00,498.40 1001.20,499.20 1001.60,500.00 1001.20,500.80 1000.00,501.60"/>
    </edge>
    <edge id=":J1_0" function="internal">
        <lane id=":J1_0_0" index="0" speed="6.51" length="9.03" shape="498.40,507.20 498.05,504.75 497.00,503.00 495.25,501.95 492.80,501.60"/>
    </edge>
    <edge id=":J1_1" function="internal">
        <lane id=":J1_1_0" index="0" speed="13.89" length="14.40" shape="498.40,507.20 498.40,492.80"/>
    </edge>
    <edge id=":J1_2" function="internal">
        <lane id=":J1_2_0" index="0" speed="8.00" length="14.19" shape="498.40,507.20 498.95,503.35 500.60,500.60 503.35,498.95 507.20,498.40"/>
    </edge>
    <edge id=":J1_3" function="internal">
        <lane id=":J1_3_0" index="0" speed="3.65" length="4.67" shape="498.40,507.20 499.20,506.00 500.00,505.60 500.80,506.00 501.60,507.20"/>
    </edge>
    <edge id=":J1_4" function="internal">
        <lane id=":J1_4_0" index="0" speed="6.51" length="9.03" shape="507.20,501.60 504.75,501.95 503.00,503.00 501.95,504.75 501.60,507.20"/>
    </edge>
    <edge id=":J1_5" function="internal">
        <lane id=":J1_5_0" index="0" speed="13.89" length="14.40" shape="507.20,501.60 492.80,501.60"/>
    </edge>
    <edge id=":J1_6" function="internal">
        <lane id=":J1_6_0" index="0" speed="8.00" length="14.19" shape="507.20,501.60 503.35,501.05 500.60,499.40 498.95,496.65 498.40,492.80"/>
    </edge>
    <edge id=":J1_7" function="internal">
        <lane id=":J1_7_0" index="0" speed="3.65" length="4.67" shape="507.20,501.60 506.00,500.80 505.60,500.00 506.00,499.20 507.20,498.40"/>
    </edge>
    <edge id=":J1_8" function="internal">
        <lane id=":J1_8_0" index="0" speed="6.51" length="9.03" shape="501.60,492.80 501.95,495.25 503.00,497.00 504.75,498.05 507.20,498.40"/>
    </edge>
    <edge id=":J1_9" function="internal">
        <lane id=":J1_9_0" index="0" speed="13.89" length="14.40" shape="501.60,492.80 501.60,507.20"/>
    </edge>
    <edge id=":J1_10" function="internal">
        <lane id=":J1_10_0" index="0" speed="8.00" length="14.19" shape="501.60,492.80 501.05,496.65 499.40,499.40 496.65,501.05 492.80,501.60"/>
    </edge>
    <edge id=":J1_11" function="internal">
        <lane id=":J1_11_0" index="0" speed="3.65" length="4.67" shape="501.60,492.80 500.80,494.00 500.00,494.40 499.20,494.00 498.40,492.80"/>
    </edge>
    <edge id=":J1_12" function="internal">
        <lane id=":J1_12_0" index="0" speed="6.51" length="9.03" shape="492.80,498.40 495.25,498.05 497.00,497.00 498.05,495.25 498.40,492.80"/>
    </edge>
    <edge id=":J1_13" function="internal">
        <lane id=":J1_13_0" index="0" speed="13.89" length="14.40" shape="492.80,498.40 507.20,498.40"/>
    </edge>
    <edge id=":J1_14" function="internal">
        <lane id=":J1_14_0" index="0" speed="8.00" length="14.19" shape="492.80,498.40 496.65,498.95 499.40,500.60 501.05,503.35 501.60,507.20"/>
    </edge>
    <edge id=":J1_15" function="internal">
        <lane id=":J1_15_0" index="0" speed="3.65" length="4.67" shape="492.80,498.40 494.00,499.20 494.40,500.00 494.00,500.80 492.80,501.60"/>
    </edge>
    <edge id=":N_0" function="internal">
        <lane id=":N_0_0" index="0" speed="3.65" length="4.67" shape="501.60,1000.00 500.80,1001.20 500.00,1001.60 499.20,1001.20 498.40,1000.00"/>
    </edge>
    <edge id=":S_0" function="internal">
        <lane id=":S_0_0" index="0" speed="3.65" length="4.67" shape="498.40,0.00 499.20,-1.20 500.00,-1.60 500.80,-1.20 501.60,0.00"/>
    </edge>
    <edge id=":W_0" function="internal">
        <lane id=":W_0_0" index="0" speed="3.65" length="4.67" shape="0.00,501.60 -1.20,500.80 -1.60,500.00 -1.20,499.20 0.00,498.40"/>
    </edge>

    <edge id="edge_E_in" from="E" to="J1" priority="1">
        <lane id="edge_E_in_0" index="0" speed="13.89" length="492.80" shape="1000.00,501.60 507.20,501.60"/>
    </edge>
    <edge id="edge_E_out" from="J1" to="E" priority="1">
        <lane id="edge_E_out_0" index="0" speed="13.89" length="492.80" shape="507.20,498.40 1000.00,498.40"/>
    </edge>
    <edge id="edge_N_in" from="N" to="J1" priority="1">
        <lane id="edge_N_in_0" index="0" speed="13.89" length="492.80" shape="498.40,1000.00 498.40,507.20"/>
    </edge>
    <edge id="edge_N_out" from="J1" to="N" priority="1">
        <lane id="edge_N_out_0" index="0" speed="13.89" length="492.80" shape="501.60,507.20 501.60,1000.00"/>
    </edge>
    <edge id="edge_S_in" from="S" to="J1" priority="1">
        <lane id="edge_S_in_0" index="0" speed="13.89" length="492.80" shape="501.60,0.00 501.60,492.80"/>
    </edge>
    <edge id="edge_S_out" from="J1" to="S" priority="1">
        <lane id="edge_S_out_0" index="0" speed="13.89" length="492.80" shape="498.40,492.80 498.40,0.00"/>
    </edge>
    <edge id="edge_W_in" from="W" to="J1" priority="1">
        <lane id="edge_W_in_0" index="0" speed="13.89" length="492.80" shape="0.00,498.40 492.80,498.40"/>
    </edge>
    <edge id="edge_W_out" from="J1" to="W" priority="1">
        <lane id="edge_W_out_0" index="0" speed="13.89" length="492.80" shape="492.80,501.60 0.00,501.60"/>
    </edge>

    <tlLogic id="J1" type="static" programID="0" offset="0">
        <phase duration="10" state="ggggrrrrrrrrrrrr"/>
        <phase duration="3"  state="yyyyrrrrrrrrrrrr"/>
        <phase duration="10" state="rrrrggggrrrrrrrr"/>
        <phase duration="3"  state="rrrryyyyrrrrrrrr"/>
        <phase duration="10" state="rrrrrrrrggggrrrr"/>
        <phase duration="3"  state="rrrrrrrryyyyrrrr"/>
        <phase duration="10" state="rrrrrrrrrrrrgggg"/>
        <phase duration="3"  state="rrrrrrrrrrrryyyy"/>
    </tlLogic>

    <junction id="E" type="priority" x="1000.00" y="500.00" incLanes="edge_E_out_0" intLanes=":E_0_0" shape="1000.00,500.00 1000.00,496.80 1000.00,500.00">
        <request index="0" response="0" foes="0" cont="0"/>
    </junction>
    <junction id="J1" type="traffic_light" x="500.00" y="500.00" incLanes="edge_N_in_0 edge_E_in_0 edge_S_in_0 edge_W_in_0" intLanes=":J1_0_0 :J1_1_0 :J1_2_0 :J1_3_0 :J1_4_0 :J1_5_0 :J1_6_0 :J1_7_0 :J1_8_0 :J1_9_0 :J1_10_0 :J1_11_0 :J1_12_0 :J1_13_0 :J1_14_0 :J1_15_0" shape="496.80,507.20 503.20,507.20 503.64,504.98 504.20,504.20 504.98,503.64 505.98,503.31 507.20,503.20 507.20,496.80 504.98,496.36 504.20,495.80 503.64,495.02 503.31,494.02 503.20,492.80 496.80,492.80 496.36,495.02 495.80,495.80 495.02,496.36 494.02,496.69 492.80,496.80 492.80,503.20 495.02,503.64 495.80,504.20 496.36,504.98 496.69,505.98">
        <request index="0"  response="0000000000000000" foes="1000010000100000" cont="0"/>
        <request index="1"  response="0000000000000000" foes="0111110001100000" cont="0"/>
        <request index="2"  response="0000011100000000" foes="0110011111100000" cont="0"/>
        <request index="3"  response="0100001000010000" foes="0100001000010000" cont="0"/>
        <request index="4"  response="0000001000000000" foes="0100001000001000" cont="0"/>
        <request index="5"  response="0000011000000111" foes="1100011000000111" cont="0"/>
        <request index="6"  response="0111011000000110" foes="0111111000000110" cont="0"/>
        <request index="7"  response="0010000100000100" foes="0010000100000100" cont="0"/>
        <request index="8"  response="0000000000000000" foes="0010000010000100" cont="0"/>
        <request index="9"  response="0000000000000000" foes="0110000001111100" cont="0"/>
        <request index="10" response="0000000000000011" foes="1110000001100111" cont="0"/>
        <request index="11" response="0001000001000010" foes="0001000001000010" cont="0"/>
        <request index="12" response="0000000000000010" foes="0000100001000010" cont="0"/>
        <request index="13" response="0000011100000110" foes="0000011111000110" cont="0"/>
        <request index="14" response="0000011000110110" foes="0000011001111110" cont="0"/>
        <request index="15" response="0000010000100001" foes="0000010000100001" cont="0"/>
    </junction>
    <junction id="N" type="priority" x="500.00" y="1000.00" incLanes="edge_N_out_0" intLanes=":N_0_0" shape="500.00,1000.00 503.20,1000.00 500.00,1000.00">
        <request index="0" response="0" foes="0" cont="0"/>
    </junction>
    <junction id="S" type="priority" x="500.00" y="0.00" incLanes="edge_S_out_0" intLanes=":S_0_0" shape="500.00,0.00 496.80,0.00 500.00,0.00">
        <request index="0" response="0" foes="0" cont="0"/>
    </junction>
    <junction id="W" type="priority" x="0.00" y="500.00" incLanes="edge_W_out_0" intLanes=":W_0_0" shape="0.00,500.00 0.00,503.20 0.00,500.00">
        <request index="0" response="0" foes="0" cont="0"/>
    </junction>

    <connection from="edge_E_in" to="edge_N_out" fromLane="0" toLane="0" via=":J1_4_0" tl="J1" linkIndex="4" dir="r" state="o"/>
    <connection from="edge_E_in" to="edge_W_out" fromLane="0" toLane="0" via=":J1_5_0" tl="J1" linkIndex="5" dir="s" state="o"/>
    <connection from="edge_E_in" to="edge_S_out" fromLane="0" toLane="0" via=":J1_6_0" tl="J1" linkIndex="6" dir="l" state="o"/>
    <connection from="edge_E_in" to="edge_E_out" fromLane="0" toLane="0" via=":J1_7_0" tl="J1" linkIndex="7" dir="t" state="o"/>
    <connection from="edge_E_out" to="edge_E_in" fromLane="0" toLane="0" via=":E_0_0" dir="t" state="M"/>
    <connection from="edge_N_in" to="edge_W_out" fromLane="0" toLane="0" via=":J1_0_0" tl="J1" linkIndex="0" dir="r" state="O"/>
    <connection from="edge_N_in" to="edge_S_out" fromLane="0" toLane="0" via=":J1_1_0" tl="J1" linkIndex="1" dir="s" state="O"/>
    <connection from="edge_N_in" to="edge_E_out" fromLane="0" toLane="0" via=":J1_2_0" tl="J1" linkIndex="2" dir="l" state="o"/>
    <connection from="edge_N_in" to="edge_N_out" fromLane="0" toLane="0" via=":J1_3_0" tl="J1" linkIndex="3" dir="t" state="o"/>
    <connection from="edge_N_out" to="edge_N_in" fromLane="0" toLane="0" via=":N_0_0" dir="t" state="M"/>
    <connection from="edge_S_in" to="edge_E_out" fromLane="0" toLane="0" via=":J1_8_0" tl="J1" linkIndex="8" dir="r" state="O"/>
    <connection from="edge_S_in" to="edge_N_out" fromLane="0" toLane="0" via=":J1_9_0" tl="J1" linkIndex="9" dir="s" state="O"/>
    <connection from="edge_S_in" to="edge_W_out" fromLane="0" toLane="0" via=":J1_10_0" tl="J1" linkIndex="10" dir="l" state="o"/>
    <connection from="edge_S_in" to="edge_S_out" fromLane="0" toLane="0" via=":J1_11_0" tl="J1" linkIndex="11" dir="t" state="o"/>
    <connection from="edge_S_out" to="edge_S_in" fromLane="0" toLane="0" via=":S_0_0" dir="t" state="M"/>
    <connection from="edge_W_in" to="edge_S_out" fromLane="0" toLane="0" via=":J1_12_0" tl="J1" linkIndex="12" dir="r" state="o"/>
    <connection from="edge_W_in" to="edge_E_out" fromLane="0" toLane="0" via=":J1_13_0" tl="J1" linkIndex="13" dir="s" state="o"/>
    <connection from="edge_W_in" to="edge_N_out" fromLane="0" toLane="0" via=":J1_14_0" tl="J1" linkIndex="14" dir="l" state="o"/>
    <connection from="edge_W_in" to="edge_W_out" fromLane="0" toLane="0" via=":J1_15_0" tl="J1" linkIndex="15" dir="t" state="o"/>
    <connection from="edge_W_out" to="edge_W_in" fromLane="0" toLane="0" via=":W_0_0" dir="t" state="M"/>

    <connection from=":E_0" to="edge_E_in" fromLane="0" toLane="0" dir="t" state="M"/>
    <connection from=":J1_0" to="edge_W_out" fromLane="0" toLane="0" dir="r" state="M"/>
    <connection from=":J1_1" to="edge_S_out" fromLane="0" toLane="0" dir="s" state="M"/>
    <connection from=":J1_2" to="edge_E_out" fromLane="0" toLane="0" dir="l" state="M"/>
    <connection from=":J1_3" to="edge_N_out" fromLane="0" toLane="0" dir="t" state="M"/>
    <connection from=":J1_4" to="edge_N_out" fromLane="0" toLane="0" dir="r" state="M"/>
    <connection from=":J1_5" to="edge_W_out" fromLane="0" toLane="0" dir="s" state="M"/>
    <connection from=":J1_6" to="edge_S_out" fromLane="0" toLane="0" dir="l" state="M"/>
    <connection from=":J1_7" to="edge_E_out" fromLane="0" toLane="0" dir="t" state="M"/>
    <connection from=":J1_8" to="edge_E_out" fromLane="0" toLane="0" dir="r" state="M"/>
    <connection from=":J1_9" to="edge_N_out" fromLane="0" toLane="0" dir="s" state="M"/>
    <connection from=":J1_10" to="edge_W_out" fromLane="0" toLane="0" dir="l" state="M"/>
    <connection from=":J1_11" to="edge_S_out" fromLane="0" toLane="0" dir="t" state="M"/>
    <connection from=":J1_12" to="edge_S_out" fromLane="0" toLane="0" dir="r" state="M"/>
    <connection from=":J1_13" to="edge_E_out" fromLane="0" toLane="0" dir="s" state="M"/>
    <connection from=":J1_14" to="edge_N_out" fromLane="0" toLane="0" dir="l" state="M"/>
    <connection from=":J1_15" to="edge_W_out" fromLane="0" toLane="0" dir="t" state="M"/>
    <connection from=":N_0" to="edge_N_in" fromLane="0" toLane="0" dir="t" state="M"/>
    <connection from=":S_0" to="edge_S_in" fromLane="0" toLane="0" dir="t" state="M"/>
    <connection from=":W_0" to="edge_W_in" fromLane="0" toLane="0" dir="t" state="M"/>

</net>
