<?xml version="1.0" encoding="UTF-8"?>
<net version="1.1" junction_positions="true">
    <location netOffset="0.0,0.0" convBoundary="-250.0,-250.0,250.0,250.0" origBoundary="-10000000000.0,-10000000000.0,10000000000.0,10000000000.0" projParameter="+proj=utm +zone=33 +ellps=WGS84 +datum=WGS84 +units=m +no_defs"/>

    <tlLogic id="J1" type="static" programID="sumo" offset="0">
        <phase duration="30" state="GGrrGGrr"/>
        <phase duration="30" state="rrGGrrGG"/>
    </tlLogic>
</net>
