<?xml version="1.0" encoding="UTF-8"?>
<configuration>
    <input>
        <net-file value="hello.net.xml"/>
        <route-files value="hello.rou.xml"/>
    </input>
    <time>
        <begin value="0"/>
        <end value="1000"/>
    </time>
    <processing>
        <delay value="0"/>
        <seed value="42"/>
    </processing>
    <gui_only>
        <gui-settings-file value="hello.view.xml"/>
    </gui_only>
</configuration>