<?xml version="1.0" encoding="UTF-8"?>
<routes>
    <vTypeDistribution id="mixed_traffic">
        <vType id="car" length="4.9" accel="3.0" decel="4.5" sigma="0.5" maxSpeed="13.89" color="yellow"/>
    </vTypeDistribution>

    <route id="NS" edges="edge_N_in edge_S_out"/>
    <route id="SN" edges="edge_S_in edge_N_out"/>
    <route id="EW" edges="edge_E_in edge_W_out"/>
    <route id="WE" edges="edge_W_in edge_E_out"/>
    <route id="NE" edges="edge_N_in edge_E_out"/>
    <route id="NW" edges="edge_N_in edge_W_out"/>
    <route id="SE" edges="edge_S_in edge_E_out"/>
    <route id="SW" edges="edge_S_in edge_W_out"/>
    <route id="EN" edges="edge_E_in edge_N_out"/>
    <route id="ES" edges="edge_E_in edge_S_out"/>
    <route id="WN" edges="edge_W_in edge_N_out"/>
    <route id="WS" edges="edge_W_in edge_S_out"/>
<flow id="periodic_NS" type="mixed_traffic" route="NS" begin="0" end="1000" period="12"/>
<flow id="periodic_SN" type="mixed_traffic" route="SN" begin="0" end="1000" period="12"/>
<flow id="periodic_EW" type="mixed_traffic" route="EW" begin="0" end="1000" period="12"/>
<flow id="periodic_WE" type="mixed_traffic" route="WE" begin="0" end="1000" period="12"/>
<flow id="periodic_NW" type="mixed_traffic" route="NW" begin="0" end="1000" period="12"/>
<flow id="periodic_SE" type="mixed_traffic" route="SE" begin="0" end="1000" period="12"/>
<flow id="periodic_EN" type="mixed_traffic" route="EN" begin="0" end="1000" period="12"/>
<flow id="periodic_WN" type="mixed_traffic" route="WN" begin="0" end="1000" period="12"/>
<flow id="periodic_NE" type="mixed_traffic" route="NE" begin="0" end="1000" period="12"/>
<flow id="periodic_SW" type="mixed_traffic" route="SW" begin="0" end="1000" period="12"/>
<flow id="periodic_ES" type="mixed_traffic" route="ES" begin="0" end="1000" period="12"/>
<flow id="periodic_WS" type="mixed_traffic" route="WS" begin="0" end="1000" period="12"/>
</routes>