<?xml version="1.0" encoding="UTF-8"?>

<net version="1.20" junctionCornerDetail="5" limitTurnSpeed="5.50"
     xmlns:xsi="http://www.w3.org/2001/XMLSchema-instance"
     xsi:noNamespaceSchemaLocation="http://sumo.dlr.de/xsd/net_file.xsd">

    <!-- Extended network boundaries -->
    <location netOffset="400.00,400.00"
              convBoundary="0.00,0.00,800.00,800.00"
              origBoundary="-400.00,-400.00,400.00,400.00"
              projParameter="!"/>

    <!-- ================= MAIN EDGES (400m) ================= -->

    <edge id="edge_E_in" from="E" to="J1" priority="1">
        <lane id="edge_E_in_0" index="0" speed="16.67"
              length="392.80"
              shape="800.00,401.60 507.20,401.60"/>
    </edge>

    <edge id="edge_E_out" from="J1" to="E" priority="1">
        <lane id="edge_E_out_0" index="0" speed="16.67"
              length="392.80"
              shape="507.20,398.40 800.00,398.40"/>
    </edge>

    <edge id="edge_N_in" from="N" to="J1" priority="1">
        <lane id="edge_N_in_0" index="0" speed="16.67"
              length="392.80"
              shape="398.40,800.00 398.40,507.20"/>
    </edge>

    <edge id="edge_N_out" from="J1" to="N" priority="1">
        <lane id="edge_N_out_0" index="0" speed="16.67"
              length="392.80"
              shape="401.60,507.20 401.60,800.00"/>
    </edge>

    <edge id="edge_S_in" from="S" to="J1" priority="1">
        <lane id="edge_S_in_0" index="0" speed="16.67"
              length="392.80"
              shape="401.60,0.00 401.60,292.80"/>
    </edge>

    <edge id="edge_S_out" from="J1" to="S" priority="1">
        <lane id="edge_S_out_0" index="0" speed="16.67"
              length="392.80"
              shape="398.40,292.80 398.40,0.00"/>
    </edge>

    <edge id="edge_W_in" from="W" to="J1" priority="1">
        <lane id="edge_W_in_0" index="0" speed="16.67"
              length="392.80"
              shape="0.00,398.40 292.80,398.40"/>
    </edge>

    <edge id="edge_W_out" from="J1" to="W" priority="1">
        <lane id="edge_W_out_0" index="0" speed="16.67"
              length="392.80"
              shape="292.80,401.60 0.00,401.60"/>
    </edge>

    <!-- ================= TRAFFIC LIGHT (UNCHANGED) ================= -->

    <tlLogic id="J1" type="static" programID="0" offset="0">
        <phase duration="30" state="GGGGrrrrrrrrrrrr"/>
        <phase duration="3"  state="yyyyrrrrrrrrrrrr"/>

        <phase duration="30" state="rrrrGGGGrrrrrrrr"/>
        <phase duration="3"  state="rrrryyyyrrrrrrrr"/>

        <phase duration="30" state="rrrrrrrrGGGGrrrr"/>
        <phase duration="3"  state="rrrrrrrryyyyrrrr"/>

        <phase duration="30" state="rrrrrrrrrrrrGGGG"/>
        <phase duration="3"  state="rrrrrrrrrrrryyyy"/>
    </tlLogic>

    <!-- ================= JUNCTIONS ================= -->

    <junction id="J1" type="traffic_light"
              x="400.00" y="400.00"/>

    <junction id="E" type="priority"
              x="800.00" y="400.00"/>

    <junction id="N" type="priority"
              x="400.00" y="800.00"/>

    <junction id="S" type="priority"
              x="400.00" y="0.00"/>

    <junction id="W" type="priority"
              x="0.00" y="400.00"/>

</net>