<?xml version="1.0" encoding="UTF-8"?>
<routes>
    <vTypeDistribution id="mixed_traffic">
        <vType id="car" length="4.9" accel="2.3" maxSpeed="15.0" color="yellow" probability="0.80" speedFactor="0.96" speedDev="0.1"/>

        <vType id="bus" length="12.0" accel="1.0" maxSpeed="10.0" color="red" probability="0.10" speedFactor="0.9"/>

        <vType id="moto" length="2.0" accel="3.0" maxSpeed="20.0" color="blue" probability="0.10" speedFactor="1.1"/>
    </vTypeDistribution>

    <route id="NS" edges="edge_N_in edge_S_out"/>
    <route id="SN" edges="edge_S_in edge_N_out"/>
    <route id="EW" edges="edge_E_in edge_W_out"/>
    <route id="WE" edges="edge_W_in edge_E_out"/>
    <route id="NE" edges="edge_N_in edge_E_out"/>
    <route id="NW" edges="edge_N_in edge_W_out"/>
    <route id="SE" edges="edge_S_in edge_E_out"/>
    <route id="SW" edges="edge_S_in edge_W_out"/>
    <route id="EN" edges="edge_E_in edge_N_out"/>
    <route id="ES" edges="edge_E_in edge_S_out"/>
    <route id="WN" edges="edge_W_in edge_N_out"/>
    <route id="WS" edges="edge_W_in edge_S_out"/>
<flow id="f_NS" type="mixed_traffic" route="NS" begin="0" end="1000" probability="0.12334624316298924"/>
<flow id="f_SN" type="mixed_traffic" route="SN" begin="0" end="1000" probability="0.12334624316298924"/>
<flow id="f_EW" type="mixed_traffic" route="EW" begin="0" end="1000" probability="0.12334624316298924"/>
<flow id="f_WE" type="mixed_traffic" route="WE" begin="0" end="1000" probability="0.12334624316298924"/>
<flow id="f_NW" type="mixed_traffic" route="NW" begin="0" end="1000" probability="0.03083656079074731"/>
<flow id="f_SE" type="mixed_traffic" route="SE" begin="0" end="1000" probability="0.03083656079074731"/>
<flow id="f_EN" type="mixed_traffic" route="EN" begin="0" end="1000" probability="0.03083656079074731"/>
<flow id="f_WS" type="mixed_traffic" route="WS" begin="0" end="1000" probability="0.03083656079074731"/>
</routes>