<?xml version="1.0" encoding="UTF-8"?>
<edges xmlns:xsi="http://www.w3.org/2001/XMLSchema-instance" xsi:noNamespaceSchemaLocation="http://sumo.dlr.de/xsd/edges_file.xsd">
    <edge id="edge_N_in" from="n_N" to="J1" priority="1" numLanes="1" speed="13.89"/>
    <edge id="edge_S_in" from="n_S" to="J1" priority="1" numLanes="1" speed="13.89"/>
    <edge id="edge_E_in" from="n_E" to="J1" priority="1" numLanes="1" speed="13.89"/>
    <edge id="edge_W_in" from="n_W" to="J1" priority="1" numLanes="1" speed="13.89"/>

    <edge id="edge_N_out" from="J1" to="n_N" priority="1" numLanes="1" speed="13.89"/>
    <edge id="edge_S_out" from="J1" to="n_S" priority="1" numLanes="1" speed="13.89"/>
    <edge id="edge_E_out" from="J1" to="n_E" priority="1" numLanes="1" speed="13.89"/>
    <edge id="edge_W_out" from="J1" to="n_W" priority="1" numLanes="1" speed="13.89"/>
</edges>