<?xml version="1.0" encoding="UTF-8"?>
<routes>
    
    <vTypeDistribution id="mixed_traffic">
        <vType id="car" length="4.903" accel="2.259" maxSpeed="15.0" color="yellow" probability="0.80" speedFactor="0.96"/>
        <vType id="bus" length="12.0" accel="1.0" maxSpeed="10.0" color="red" probability="0.10"/>
        <vType id="moto" length="2.0" accel="3.0" maxSpeed="20.0" color="blue" probability="0.10"/>
    </vTypeDistribution>
    
    <route id="route_NS" edges="edge_N_in edge_S_out"/>
    <route id="route_SN" edges="edge_S_in edge_N_out"/>
    <route id="route_EW" edges="edge_E_in edge_W_out"/>
    <route id="route_WE" edges="edge_W_in edge_E_out"/>
    <route id="route_NE" edges="edge_N_in edge_E_out"/>
    
    <flow id="f_NS" type="mixed_traffic" route="route_NS" begin="0" end="1000" probability="0.4"/>
    <flow id="f_SN" type="mixed_traffic" route="route_SN" begin="0" end="1000" probability="0.3"/>
    <flow id="f_EW" type="mixed_traffic" route="route_EW" begin="0" end="1000" probability="0.1"/>
    <flow id="f_WE" type="mixed_traffic" route="route_WE" begin="0" end="1000" probability="0.1"/>
    <flow id="f_NE" type="mixed_traffic" route="route_NE" begin="0" end="1000" probability="0.05"/>
</routes>