<edges>
    <edge id="edge_N_in" from="N" to="J1" priority="1" numLanes="1"/>
    <edge id="edge_S_in" from="S" to="J1" priority="1" numLanes="1"/>
    <edge id="edge_E_in" from="E" to="J1" priority="1" numLanes="1"/>
    <edge id="edge_W_in" from="W" to="J1" priority="1" numLanes="1"/>

    <edge id="edge_N_out" from="J1" to="N" priority="1" numLanes="1"/>
    <edge id="edge_S_out" from="J1" to="S" priority="1" numLanes="1"/>
    <edge id="edge_E_out" from="J1" to="E" priority="1" numLanes="1"/>
    <edge id="edge_W_out" from="J1" to="W" priority="1" numLanes="1"/>
</edges>
